 &time_control
 run_days                            = 0,
 run_hours                           = 3
 run_minutes                         = 0,
 run_seconds                         = 0,
 start_year                          = 2018,2018,
 start_month                         = 06,06,
 start_day                           = 7,7,
 start_hour                          = 12,12,
 start_minute                        = 00,   00,   00,  00,  00,  00,
 start_second                        = 00,   00,   00,  00,  00,  00,
 end_year                            = 2018,2018,
 end_month                           = 06,06,
 end_day                             = 7,7,
 end_hour                            = 15,15,
 end_minute                          = 00,   00,    5,   5,   5,   5,
 end_second                          = 00,   00,   00,  00,  00,  00,
 interval_seconds                    = 10800,
 input_from_file                     = .true., .true., .true.,
 history_interval                    = 5,     5,   60,
 frames_per_outfile                  = 1,     1,    1,
 restart                             = .false.,
 restart_interval                    = 25000,
 io_form_history                     = 2
 io_form_restart                     = 2
 io_form_input                       = 2
 io_form_boundary                    = 2
 debug_level                         = 300 
/

 &domains
 time_step                           = 75,
 time_step_fract_num                 = 0,
 time_step_fract_den                 = 1,
 max_dom                             = 1,
 e_we                                = 105,396,
 e_sn                                = 80,251,
 num_metgrid_levels                  = 32,
 num_metgrid_soil_levels             = 4,
 dx                                  = 15000.0000,3000.0000,
 dy                                  = 15000.0000,3000.0000,
 grid_id                             = 1,     2,     3,    4,    5,    6,
 parent_id                           = 0,     1,     2,    2,    3,    2,
 i_parent_start                      = 1,18,
 j_parent_start                      = 1,15,
 parent_grid_ratio                   = 1,5,
 parent_time_step_ratio              = 1,4
 feedback                            = 1,
 smooth_option                       = 1
 interp_type                         = 1
 hypsometric_opt                     = 2
 lowest_lev_from_sfc                 = .false.
 lagrange_order                      = 1
 force_sfc_in_vinterp                = 1
 zap_close_levels                    = 500
 smooth_cg_topo                      = .true.
 sfcp_to_sfcp                        = .false.
 adjust_heights                      = .false.

 ! eta_levels                          = 1.0000, 0.9980, 0.9940, 0.9870, 0.9750, 0.9590, 
 !                                       0.9390, 0.9160, 0.8920, 0.8650, 0.8350, 0.8020, 
 !                                       0.7660, 0.7270, 0.6850, 0.6400, 0.5920, 0.5420, 
 !                                       0.4970, 0.4565, 0.4205, 0.3877, 0.3582, 0.3317, 
 !                                       0.3078, 0.2863, 0.2670, 0.2496, 0.2329, 0.2188, 
 !                                       0.2047, 0.1906, 0.1765, 0.1624, 0.1483, 0.1342, 
 !                                       0.1201, 0.1060, 0.0919, 0.0778, 0.0657, 0.0568, 
 !                                       0.0486, 0.0409, 0.0337, 0.0271, 0.0209, 0.0151, 
 !                                       0.0097, 0.0047, 0.0000,

 ! p_top_requested                     = 6500
 ! e_vert = 35, 35, 35, 35, 35, 35
 ! eta_levels                          = 1.00000 , 0.99258 , 0.98275 , 0.96996 , 0.95372 ,
 !                                       0.93357 , 0.90913 , 0.87957 , 0.84531 , 0.80683 ,
 !                                       0.76467 , 0.71940 , 0.67163 , 0.62198 , 0.57108 ,
 !                                       0.51956 , 0.46803 , 0.42030 , 0.37613 , 0.33532 ,
 !                                       0.29764 , 0.26290 , 0.23092 , 0.20152 , 0.17452 ,
 !                                       0.14978 , 0.12714 , 0.10646 , 0.08761 , 0.07045 ,
 !                                       0.05466 , 0.03981 , 0.02580 , 0.01258 , 0.00000

 !p_top_requested                     = 5000
 !e_vert = 40, 40, 40, 40, 40, 40
 !eta_levels                            = 1.00000 , 0.99307 , 0.98348 , 0.97105 , 0.95551 ,
 !                                        0.93651 , 0.91363 , 0.88644 , 0.85460 , 0.81855 ,
 !                                        0.77877 , 0.73579 , 0.69016 , 0.64246 , 0.59329 ,
 !                                        0.54573 , 0.50104 , 0.45908 , 0.41972 , 0.38281 ,
 !                                        0.34824 , 0.31589 , 0.28563 , 0.25735 , 0.23096 ,
 !                                        0.20635 , 0.18343 , 0.16209 , 0.14226 , 0.12384 ,
 !                                        0.10677 , 0.09095 , 0.07633 , 0.06282 , 0.05036 ,
 !                                        0.03889 , 0.02835 , 0.01868 , 0.00983 , 0.00000

 p_top_requested                     = 1500
 e_vert = 51, 51, 51, 51, 51, 51
 eta_levels                          = 1.0000, 0.9980, 0.9940, 0.9870, 0.9750, 0.9590,
				       0.9390, 0.9160, 0.8920, 0.8650, 0.8350, 0.8020, 0.7660,
				       0.7270, 0.6850, 0.6400, 0.5920, 0.5420, 0.4970, 0.4565,
				       0.4205, 0.3877, 0.3582, 0.3317, 0.3078, 0.2863, 0.2670,
				       0.2496, 0.2329, 0.2188, 0.2047, 0.1906, 0.1765, 0.1624,
				       0.1483, 0.1342, 0.1201, 0.1060, 0.0919, 0.0778, 0.0657,
				       0.0568, 0.0486, 0.0409, 0.0337, 0.0271, 0.0209, 0.0151,
				       0.0097, 0.0047, 0.0000,
 /

 &physics
 mp_physics                          = 28,28, 
 mp_tend_lim                         = 0.07,
 do_radar_ref                        = 1,
 ra_lw_physics                       = 0,     0,     0,
 ra_sw_physics                       = 0,     0,     0,
 radt                                = 15,    15,    15,
 sf_sfclay_physics                   = 0,     0,     0,
 sf_surface_physics                  = 0,     0,     0,
 bl_pbl_physics                      = 0,     0,     0,
 bldt                                = 0,     0,     0,
 cu_physics                          = 0,     0,     0,
 cudt                                = 0,     0,     5,
 surface_input_source                = 1,
 num_land_cat                        = 20,
 lightning_option                    = 3,   101,     5,
 lightning_dt                        = 75,    15,     5,
 /


 &dynamics
 hybrid_opt                          = 0, 
 rk_ord                              = 3,
 diff_opt                            = 2,      2,      2,
 km_opt                              = 2,      2,      2,
 damp_opt                            = 2,
 zdamp                               = 5000.,  5000.,  5000.,
 dampcoef                            = 0.003,  0.003,  0.003
 khdif                               = 500,    500,    500,
 kvdif                               = 500,    500,    500,
 smdiv                               = 0.1,    0.1,    0.1,
 emdiv                               = 0.01,   0.01,   0.01,
 epssm                               = 0.1,    0.1,    0.1
 time_step_sound                     = 6,      6,      6,
 h_mom_adv_order                     = 5,      5,      5,
 v_mom_adv_order                     = 3,      3,      3,
 h_sca_adv_order                     = 5,      5,      5,
 v_sca_adv_order                     = 3,      3,      3,
 moist_adv_opt                       = 1,      1,      1,     
 scalar_adv_opt                      = 1,      1,      1,     
 chem_adv_opt                        = 1,      1,      1,     
 tke_adv_opt                         = 1,      1,      1,     
 non_hydrostatic                     = .true., .true., .true.,
 mix_full_fields                     = .true., .true., .true.,
 /

 &bdy_control
 spec_bdy_width                      = 5,
 spec_zone                           = 1,
 relax_zone                          = 4,
 specified                           = .true., .false.,
 nested                              = .false.,.true.,
 /

 &namelist_quilt
 nio_tasks_per_group = 9,
 nio_groups = 4,
 /
 nio_tasks_per_group = 8,
 nio_groups = 4,
!nio_tasks_per_group = 0,
!nio_groups = 1,

